22
Properties=species:S:1:pos:R:3 Energy:=T 185.7996884=T pbc="F F F"
Li      -2.56106000      -0.68713000      -0.08484000
N       -1.01455000       1.68243000       0.01772000
S       -1.59301000       3.33432000       0.32951000
S        0.73248000       1.63936000      -0.30879000
O        1.04119000       2.85070000      -1.20299000
O        1.40962000       2.01988000       1.01670000
O       -1.45194000       4.08007000      -1.00624000
O       -0.52892000       4.01303000       1.20661000
F       -3.16421000       3.49426000       0.98560000
F        1.36482000       0.18695000      -0.95328000
C       -4.56455025       0.18689471      -1.24140949
C       -3.65217075       1.25074391      -0.82057850
H       -5.38772251       0.62168378      -1.84488712
H       -4.98764437      -0.31379775      -0.34636839
H       -4.01103364      -0.55534119      -1.85254158
N       -2.93047941       2.09202312      -0.48772561
C       -0.03646229      -1.90101462      -3.04968582
C       -1.47376338      -1.62801530      -3.01891000
H        0.20977484      -2.67664792      -2.29563038
H        0.52227039      -0.97086649      -2.81850975
H        0.25017743      -2.26276579      -4.05852227
N       -2.61049183      -1.41204600      -2.99470598
