6
	Energy:      -0.1606255
C         -3.99072        0.95595        0.00000
C         -2.56261        1.27503       -0.00000
H         -4.56722        1.83613       -0.35181
H         -4.31126        0.69189        1.02875
H         -4.17824        0.09725       -0.67694
N         -1.43311        1.52724       -0.00000
