10
	Energy:     185.7996884
Li        -2.56106       -0.68713       -0.08484
N         -1.01455        1.68243        0.01772
S         -1.59301        3.33432        0.32951
S          0.73248        1.63936       -0.30879
O          1.04119        2.85070       -1.20299
O          1.40962        2.01988        1.01670
O         -1.45194        4.08007       -1.00624
O         -0.52892        4.01303        1.20661
F         -3.16421        3.49426        0.98560
F          1.36482        0.18695       -0.95328
