16
Properties=species:S:1:pos:R:3 Energy:=T 185.7996884=T pbc="F F F"
Li      -2.56106000      -0.68713000      -0.08484000
N       -1.01455000       1.68243000       0.01772000
S       -1.59301000       3.33432000       0.32951000
S        0.73248000       1.63936000      -0.30879000
O        1.04119000       2.85070000      -1.20299000
O        1.40962000       2.01988000       1.01670000
O       -1.45194000       4.08007000      -1.00624000
O       -0.52892000       4.01303000       1.20661000
F       -3.16421000       3.49426000       0.98560000
F        1.36482000       0.18695000      -0.95328000
C       -0.12929145       2.84088056      -3.98721472
C       -1.47688997       3.40954118      -4.03095885
H       -0.19400351       1.73334275      -3.99063634
H        0.38510374       3.17775970      -3.06379165
H        0.44458910       3.17987444      -4.87407517
N       -2.54262652       3.85941394      -4.06560331
